Circuit: * C:\Users\ryusl\OneDrive\Masaüstü\2021Spring\EE464\Homeworks\HW3_Local\LTSpiceFiles\Buck_Controller_Modeling.asc

WARNING: Specified period is not longer than the sum of Trise, Tfall, and Ton for v3.  Increasing period to 5.0002e-006
Direct Newton iteration failed to find .op point.  (Use ".option noopiter" to skip.)
Starting Gmin stepping
Gmin = 10
Gmin = 1.07374
Gmin = 0.115292
Gmin = 0.0123794
Gmin = 0.00132923
Gmin = 0.000142725
vernier = 0.5
vernier = 0.25
vernier = 0.125
Gmin = 3.74144e-005
vernier = 0.0625
vernier = 0.03125
vernier = 0.015625
vernier = 0.0078125
vernier = 0.00390625
vernier = 0.00195313
vernier = 0.000976563
vernier = 0.000488281
Gmin = 0
Gmin stepping failed

Starting source stepping with srcstepmethod=0
Source Step = 3.0303%
vernier = 0.25
Source Step = 0.0177557%
Starting source stepping with srcstepmethod=1
Source Step = 3.0303%
vernier = 0.25
Source stepping failed

Pseudo Transient succeeded in finding the operating point at 327.806 ms.
Heightened Def Con from 5.34874e-005 to 5.34884e-005
Heightened Def Con from 0.000103897 to 0.000103898
Heightened Def Con from 0.000449549 to 0.000449549
Heightened Def Con from 0.00154959 to 0.00154959
Heightened Def Con from 0.00248964 to 0.00248964
Heightened Def Con from 0.00265462 to 0.00265462
Heightened Def Con from 0.0027047 to 0.0027047
Heightened Def Con from 0.0033347 to 0.0033347
Heightened Def Con from 0.00523919 to 0.00523919
Heightened Def Con from 0.00525913 to 0.00525913
Heightened Def Con from 0.00560916 to 0.00560916
Heightened Def Con from 0.00718916 to 0.00718916
Heightened Def Con from 0.00820923 to 0.00820923
Heightened Def Con from 0.00951926 to 0.00951926

Date: Thu Jun 03 00:23:49 2021
Total elapsed time: 5.981 seconds.

tnom = 27
temp = 27
method = modified trap
totiter = 1432946
traniter = 1424405
tranpoints = 439432
accept = 325934
rejected = 113534
matrix size = 18
fillins = 13
solver = Normal
Matrix Compiler1: 1.21 KB object code size  0.4/0.3/[0.1]
Matrix Compiler2: 1.65 KB object code size  0.2/0.3/[0.2]

