Circuit: * C:\Users\ryusl\OneDrive\Masaüstü\2021Spring\EE464\Homeworks\HW3_Local\LTSpiceFiles\Buck_Controller_Modeling.asc

Vin1: Removing PWL point (0.005,0)
WARNING: Specified period is not longer than the sum of Trise, Tfall, and Ton for v3.  Increasing period to 5.0002e-006
WARNING: Node N009 is floating.
WARNING: Node NC_02 is floating.

WARNING: Less than two connections to node NC_01.  This node is used by V4.
WARNING: Less than two connections to node NC_02.  This node is used by V4.
Direct Newton iteration failed to find .op point.  (Use ".option noopiter" to skip.)
Starting Gmin stepping
Gmin = 10
Gmin = 1.07374
Gmin = 0.115292
Gmin = 0.0123794
Gmin = 0.00132923
Gmin = 0.000142725
vernier = 0.5
vernier = 0.25
vernier = 0.125
vernier = 0.0625
vernier = 0.03125
vernier = 0.015625
vernier = 0.0078125
Gmin = 9.13439e-005
vernier = 0.00390625
vernier = 0.00195313
vernier = 0.000976563
vernier = 0.000488281
Gmin = 0
Gmin stepping failed

Starting source stepping with srcstepmethod=0
Source Step = 3.0303%
vernier = 0.25
Source Step = 0.0177557%
Starting source stepping with srcstepmethod=1
Source Step = 3.0303%
vernier = 0.25
Source stepping failed

Pseudo Transient succeeded in finding the operating point at 327.757 ms.
Heightened Def Con from 9.8263e-005 to 9.8264e-005
Heightened Def Con from 0.000873938 to 0.000873938
Heightened Def Con from 0.00310401 to 0.00310401
Heightened Def Con from 0.00527484 to 0.00527484
Heightened Def Con from 0.00547977 to 0.00547977
Heightened Def Con from 0.00551398 to 0.00551398
Heightened Def Con from 0.00624984 to 0.00624984
Heightened Def Con from 0.0064348 to 0.0064348
Heightened Def Con from 0.0074548 to 0.0074548
Heightened Def Con from 0.00822479 to 0.00822479
Heightened Def Con from 0.00839994 to 0.00839994
Heightened Def Con from 0.00861491 to 0.00861491
Heightened Def Con from 0.00881991 to 0.00881991
Heightened Def Con from 0.00932495 to 0.00932496
Heightened Def Con from 0.00998498 to 0.00998498

Date: Sun Jun 06 15:34:33 2021
Total elapsed time: 7.137 seconds.

tnom = 27
temp = 27
method = modified trap
totiter = 1433562
traniter = 1425145
tranpoints = 439633
accept = 326094
rejected = 113573
matrix size = 25
fillins = 13
solver = Normal
Matrix Compiler1: 1.50 KB object code size  0.3/0.2/[0.1]
Matrix Compiler2: 2.02 KB object code size  0.4/0.5/[0.2]

