Circuit: * C:\Users\ryusl\OneDrive\Masaüstü\2021Spring\EE464\Homeworks\HW3_Local\LTSpiceFiles\Buck_Controller_Modeling_25kHz.asc

WARNING: Specified period is not longer than the sum of Trise, Tfall, and Ton for v3.  Increasing period to 5.0002e-006
Direct Newton iteration failed to find .op point.  (Use ".option noopiter" to skip.)
Starting Gmin stepping
Gmin = 10
Gmin = 1.07374
Gmin = 0.115292
Gmin = 0.0123794
Gmin = 0.00132923
Gmin = 0.000142725
Gmin = 1.5325e-005
vernier = 0.5
vernier = 0.25
vernier = 0.125
vernier = 0.0625
vernier = 0.03125
vernier = 0.015625
vernier = 0.0078125
vernier = 0.00390625
vernier = 0.00195313
vernier = 0.000976563
Gmin = 1.91562e-005
vernier = 0.000488281
Gmin = 0
Gmin stepping failed

Starting source stepping with srcstepmethod=0
Source Step = 3.0303%
vernier = 0.25
Source Step = 0.0177557%
Starting source stepping with srcstepmethod=1
Source Step = 3.0303%
vernier = 0.25
Source stepping failed

Pseudo Transient succeeded in finding the operating point at 328.324 ms.
Heightened Def Con from 0.000574302 to 0.000574302
Heightened Def Con from 0.00160458 to 0.00160458
Heightened Def Con from 0.00166464 to 0.00166464
Heightened Def Con from 0.00519929 to 0.00519929
Heightened Def Con from 0.00585912 to 0.00585912
Heightened Def Con from 0.00636915 to 0.00636915
Heightened Def Con from 0.00647415 to 0.00647415
Heightened Def Con from 0.00943429 to 0.0094343

Date: Sun Jun 06 04:42:54 2021
Total elapsed time: 5.877 seconds.

tnom = 27
temp = 27
method = modified trap
totiter = 1434450
traniter = 1425907
tranpoints = 441463
accept = 327562
rejected = 113933
matrix size = 18
fillins = 13
solver = Normal
Matrix Compiler1: 1.21 KB object code size  0.3/0.2/[0.1]
Matrix Compiler2: 1.65 KB object code size  0.2/0.3/[0.2]

